4cd6_ligand
     RDKit          3D

 45 46  0  0  0  0  0  0  0  0999 V2000
   24.3728   23.2899   59.7713 O   0  0  0  0  0  0  0  0  0  0  0  0
   24.9378   24.1050   58.7266 C   0  0  1  0  0  0  0  0  0  0  0  0
   23.9365   24.1581   57.5811 C   0  0  2  0  0  0  0  0  0  0  0  0
   23.8952   22.8611   56.9703 O   0  0  0  0  0  0  0  0  0  0  0  0
   24.2231   25.2509   56.5379 C   0  0  0  0  0  0  0  0  0  0  0  0
   24.7764   26.4663   57.1436 N   0  0  0  0  0  0  0  0  0  0  0  0
   25.7950   26.3766   58.2002 C   0  0  0  0  0  0  0  0  0  0  0  0
   25.2428   25.4891   59.3027 C   0  0  2  0  0  0  0  0  0  0  0  0
   26.1279   25.4677   60.5500 C   0  0  0  0  0  0  0  0  0  0  0  0
   27.5144   25.2208   60.2733 O   0  0  0  0  0  0  0  0  0  0  0  0
   23.3902   22.2677   59.6392 C   0  0  1  0  0  0  0  0  0  0  0  0
   22.1381   22.4152   60.4869 C   0  0  2  0  0  0  0  0  0  0  0  0
   21.1322   21.4041   59.9454 C   0  0  2  0  0  0  0  0  0  0  0  0
   20.9230   21.6339   58.4539 C   0  0  1  0  0  0  0  0  0  0  0  0
   22.2387   21.6979   57.6588 C   0  0  1  0  0  0  0  0  0  0  0  0
   21.9555   22.0142   56.1828 C   0  0  0  0  0  0  0  0  0  0  0  0
   21.6084   23.7602   60.4256 O   0  0  0  0  0  0  0  0  0  0  0  0
   19.8734   21.5166   60.6038 O   0  0  0  0  0  0  0  0  0  0  0  0
   20.1414   20.5592   57.9411 O   0  0  0  0  0  0  0  0  0  0  0  0
   23.1188   22.6536   58.2835 O   0  0  0  0  0  0  0  0  0  0  0  0
   23.1616   22.1405   55.4099 O   0  0  0  0  0  0  0  0  0  0  0  0
   25.8717   23.6945   58.3428 H   0  0  0  0  0  0  0  0  0  0  0  0
   22.9674   24.4297   57.9994 H   0  0  0  0  0  0  0  0  0  0  0  0
   23.8467   22.1883   57.6533 H   0  0  0  0  0  0  0  0  0  0  0  0
   23.2819   25.5122   56.0542 H   0  0  0  0  0  0  0  0  0  0  0  0
   24.9562   24.8609   55.8318 H   0  0  0  0  0  0  0  0  0  0  0  0
   23.9773   26.9047   57.6017 H   0  0  0  0  0  0  0  0  0  0  0  0
   25.2535   26.9356   56.3739 H   0  0  0  0  0  0  0  0  0  0  0  0
   26.0235   27.3681   58.5910 H   0  0  0  0  0  0  0  0  0  0  0  0
   26.7179   25.9553   57.8016 H   0  0  0  0  0  0  0  0  0  0  0  0
   24.3053   25.9111   59.6648 H   0  0  0  0  0  0  0  0  0  0  0  0
   25.7740   24.6559   61.1856 H   0  0  0  0  0  0  0  0  0  0  0  0
   26.0595   26.4519   61.0136 H   0  0  0  0  0  0  0  0  0  0  0  0
   27.9491   24.9129   61.0720 H   0  0  0  0  0  0  0  0  0  0  0  0
   23.6917   21.2567   59.9131 H   0  0  0  0  0  0  0  0  0  0  0  0
   22.3595   22.2286   61.5377 H   0  0  0  0  0  0  0  0  0  0  0  0
   21.5355   20.4077   60.1262 H   0  0  0  0  0  0  0  0  0  0  0  0
   20.4277   22.5981   58.3399 H   0  0  0  0  0  0  0  0  0  0  0  0
   22.7405   20.7303   57.6715 H   0  0  0  0  0  0  0  0  0  0  0  0
   21.4237   22.9645   56.1369 H   0  0  0  0  0  0  0  0  0  0  0  0
   21.3722   21.1927   55.7670 H   0  0  0  0  0  0  0  0  0  0  0  0
   21.1139   23.9450   61.2273 H   0  0  0  0  0  0  0  0  0  0  0  0
   19.1917   21.7135   59.9572 H   0  0  0  0  0  0  0  0  0  0  0  0
   20.1328   20.6004   56.9820 H   0  0  0  0  0  0  0  0  0  0  0  0
   23.2908   21.3450   54.8883 H   0  0  0  0  0  0  0  0  0  0  0  0
  1  2  1  0
  1 11  1  0
  2  3  1  0
  2  8  1  0
  3  4  1  0
  3  5  1  0
  5  6  1  0
  6  7  1  0
  7  8  1  0
  8  9  1  0
  9 10  1  0
 11 12  1  0
 11 20  1  0
 12 13  1  0
 12 17  1  0
 13 14  1  0
 13 18  1  0
 14 15  1  0
 14 19  1  0
 15 16  1  0
 15 20  1  0
 16 21  1  0
  2 22  1  6
  3 23  1  1
  4 24  1  0
  5 25  1  0
  5 26  1  0
  6 27  1  0
  6 28  1  0
  7 29  1  0
  7 30  1  0
  8 31  1  1
  9 32  1  0
  9 33  1  0
 10 34  1  0
 11 35  1  6
 12 36  1  1
 13 37  1  6
 14 38  1  1
 15 39  1  6
 16 40  1  0
 16 41  1  0
 17 42  1  0
 18 43  1  0
 19 44  1  0
 21 45  1  0
M  CHG  1   6   1
M  END
