4daf_ligand
     RDKit          3D

 27 28  0  0  0  0  0  0  0  0999 V2000
  -16.5892   25.2189    5.9734 O   0  0  0  0  0  0  0  0  0  0  0  0
  -15.9343   24.9627    4.7469 C   0  0  0  0  0  0  0  0  0  0  0  0
  -16.6112   24.3579    3.7575 N   0  0  0  0  0  0  0  0  0  0  0  0
  -16.0682   24.1319    2.5597 C   0  0  0  0  0  0  0  0  0  0  0  0
  -16.8277   23.4943    1.5260 N   0  0  0  0  0  0  0  0  0  0  0  0
  -14.7989   24.4830    2.3199 N   0  0  0  0  0  0  0  0  0  0  0  0
  -14.0505   25.0865    3.2586 C   0  0  0  0  0  0  0  0  0  0  0  0
  -14.6037   25.3468    4.5089 C   0  0  0  0  0  0  0  0  0  0  0  0
  -13.7483   25.9902    5.4623 C   0  0  0  0  0  0  0  0  0  0  0  0
  -14.1766   26.2634    6.7632 O   0  0  0  0  0  0  0  0  0  0  0  0
  -12.8152   25.4276    2.9666 N   0  0  0  0  0  0  0  0  0  0  0  0
  -12.0222   26.0236    3.8412 N   0  0  0  0  0  0  0  0  0  0  0  0
  -12.4435   26.3136    5.0691 C   0  0  0  0  0  0  0  0  0  0  0  0
  -11.4776   26.9860    6.0604 C   0  0  1  0  0  0  0  0  0  0  0  0
  -11.9378   28.4058    6.3382 C   0  0  0  0  0  0  0  0  0  0  0  0
  -11.3234   26.3514    7.4013 C   0  0  0  0  0  0  0  0  0  0  0  0
  -11.1603   25.1106    7.4983 O   0  0  0  0  0  0  0  0  0  0  0  0
  -11.5320   27.0110    8.4177 O   0  0  0  0  0  0  0  0  0  0  0  0
  -17.5723   24.0615    3.9271 H   0  0  0  0  0  0  0  0  0  0  0  0
  -16.4012   23.3138    0.6172 H   0  0  0  0  0  0  0  0  0  0  0  0
  -17.7950   23.2208    1.6988 H   0  0  0  0  0  0  0  0  0  0  0  0
  -13.4759   26.7121    7.2420 H   0  0  0  0  0  0  0  0  0  0  0  0
  -10.5171   26.9016    5.5521 H   0  0  0  0  0  0  0  0  0  0  0  0
  -11.9169   28.9809    5.4125 H   0  0  0  0  0  0  0  0  0  0  0  0
  -12.9538   28.3864    6.7325 H   0  0  0  0  0  0  0  0  0  0  0  0
  -11.2720   28.8658    7.0684 H   0  0  0  0  0  0  0  0  0  0  0  0
  -11.0872   24.7290    6.6204 H   0  0  0  0  0  0  0  0  0  0  0  0
  1  2  2  0
  2  3  1  0
  2  8  1  0
  3  4  1  0
  4  5  1  0
  4  6  2  0
  6  7  1  0
  7  8  2  0
  7 11  1  0
  8  9  1  0
  9 10  1  0
  9 13  2  0
 11 12  2  0
 12 13  1  0
 13 14  1  0
 14 15  1  0
 14 16  1  0
 16 17  1  0
 16 18  2  0
  3 19  1  0
  5 20  1  0
  5 21  1  0
 10 22  1  0
 14 23  1  6
 15 24  1  0
 15 25  1  0
 15 26  1  0
 17 27  1  0
M  END
