2pri_ligand
     RDKit          3D

 28 28  0  0  0  0  0  0  0  0999 V2000
   -2.2512  -18.9964  -20.0599 C   0  0  1  0  0  0  0  0  0  0  0  0
   -3.2893  -20.1096  -20.4850 C   0  0  0  0  0  0  0  0  0  0  0  0
   -4.7502  -19.5770  -20.4622 C   0  0  2  0  0  0  0  0  0  0  0  0
   -5.0911  -18.9138  -19.0992 C   0  0  1  0  0  0  0  0  0  0  0  0
   -3.9891  -17.8113  -18.7243 C   0  0  1  0  0  0  0  0  0  0  0  0
   -4.1708  -17.3112  -17.3170 C   0  0  0  0  0  0  0  0  0  0  0  0
   -2.0522  -17.9764  -21.0446 O   0  0  0  0  0  0  0  0  0  0  0  0
   -5.7065  -20.5981  -20.7082 O   0  0  0  0  0  0  0  0  0  0  0  0
   -6.3905  -18.3287  -19.2217 O   0  0  0  0  0  0  0  0  0  0  0  0
   -2.6609  -18.3866  -18.7907 O   0  0  0  0  0  0  0  0  0  0  0  0
   -5.2634  -17.9465  -16.7050 O   0  0  0  0  0  0  0  0  0  0  0  0
   -6.8268  -17.5410  -16.9489 P   0  0  2  0  0  0  0  0  0  0  0  0
   -7.6194  -18.4443  -16.0401 O   0  0  0  0  0  0  0  0  0  0  0  0
   -7.1841  -17.8278  -18.3703 O   0  0  0  0  0  0  0  0  0  0  0  0
   -6.8202  -16.0402  -16.6451 O   0  0  0  0  0  0  0  0  0  0  0  0
   -1.2936  -19.5055  -19.9503 H   0  0  0  0  0  0  0  0  0  0  0  0
   -3.2149  -20.9353  -19.7772 H   0  0  0  0  0  0  0  0  0  0  0  0
   -3.0558  -20.4251  -21.5018 H   0  0  0  0  0  0  0  0  0  0  0  0
   -4.8044  -18.8398  -21.2633 H   0  0  0  0  0  0  0  0  0  0  0  0
   -5.0891  -19.6513  -18.2965 H   0  0  0  0  0  0  0  0  0  0  0  0
   -4.1071  -16.9943  -19.4362 H   0  0  0  0  0  0  0  0  0  0  0  0
   -4.3560  -16.2374  -17.3444 H   0  0  0  0  0  0  0  0  0  0  0  0
   -3.2690  -17.5296  -16.7450 H   0  0  0  0  0  0  0  0  0  0  0  0
   -1.7726  -18.3798  -21.8697 H   0  0  0  0  0  0  0  0  0  0  0  0
   -5.5134  -21.0201  -21.5486 H   0  0  0  0  0  0  0  0  0  0  0  0
   -6.7326  -18.4938  -20.1034 H   0  0  0  0  0  0  0  0  0  0  0  0
   -7.0458  -18.7849  -15.3498 H   0  0  0  0  0  0  0  0  0  0  0  0
   -6.2141  -15.8640  -15.9218 H   0  0  0  0  0  0  0  0  0  0  0  0
  1  2  1  0
  1  7  1  0
  1 10  1  0
  2  3  1  0
  3  4  1  0
  3  8  1  0
  4  5  1  0
  4  9  1  0
  5  6  1  0
  5 10  1  0
  6 11  1  0
 12 11  1  6
 12 13  1  0
 12 14  2  0
 12 15  1  0
  1 16  1  1
  2 17  1  0
  2 18  1  0
  3 19  1  6
  4 20  1  1
  5 21  1  6
  6 22  1  0
  6 23  1  0
  7 24  1  0
  8 25  1  0
  9 26  1  0
 13 27  1  0
 15 28  1  0
M  END
