2pri_ligand
     RDKit          3D

 28 28  0  0  0  0  0  0  0  0999 V2000
   15.9002   15.9317   56.6386 C   0  0  1  0  0  0  0  0  0  0  0  0
   16.3575   15.1618   57.9408 C   0  0  0  0  0  0  0  0  0  0  0  0
   16.2966   16.0706   59.2013 C   0  0  2  0  0  0  0  0  0  0  0  0
   17.0654   17.4022   58.9784 C   0  0  1  0  0  0  0  0  0  0  0  0
   16.5640   18.1175   57.6340 C   0  0  1  0  0  0  0  0  0  0  0  0
   17.4373   19.2897   57.2783 C   0  0  0  0  0  0  0  0  0  0  0  0
   14.4923   16.1826   56.5722 O   0  0  0  0  0  0  0  0  0  0  0  0
   16.8324   15.4388   60.3551 O   0  0  0  0  0  0  0  0  0  0  0  0
   16.8325   18.2270   60.1235 O   0  0  0  0  0  0  0  0  0  0  0  0
   16.6349   17.1953   56.5186 O   0  0  0  0  0  0  0  0  0  0  0  0
   18.3942   19.5142   58.2813 O   0  0  0  0  0  0  0  0  0  0  0  0
   19.8340   18.7486   58.3765 P   0  0  2  0  0  0  0  0  0  0  0  0
   19.4991   17.2894   58.5459 O   0  0  0  0  0  0  0  0  0  0  0  0
   20.5610   19.2359   59.5865 O   0  0  0  0  0  0  0  0  0  0  0  0
   20.5158   19.1846   57.0766 O   0  0  0  0  0  0  0  0  0  0  0  0
   16.1320   15.2715   55.8029 H   0  0  0  0  0  0  0  0  0  0  0  0
   17.3889   14.8373   57.8023 H   0  0  0  0  0  0  0  0  0  0  0  0
   15.6844   14.3184   58.0940 H   0  0  0  0  0  0  0  0  0  0  0  0
   15.2378   16.2705   59.3658 H   0  0  0  0  0  0  0  0  0  0  0  0
   18.1337   17.2197   58.8622 H   0  0  0  0  0  0  0  0  0  0  0  0
   15.5410   18.4469   57.8161 H   0  0  0  0  0  0  0  0  0  0  0  0
   16.8136   20.1781   57.1794 H   0  0  0  0  0  0  0  0  0  0  0  0
   17.9510   19.0763   56.3409 H   0  0  0  0  0  0  0  0  0  0  0  0
   14.0207   15.3471   56.5365 H   0  0  0  0  0  0  0  0  0  0  0  0
   16.4155   14.5820   60.4722 H   0  0  0  0  0  0  0  0  0  0  0  0
   16.0546   17.9125   60.5900 H   0  0  0  0  0  0  0  0  0  0  0  0
   19.8873   16.9658   59.3620 H   0  0  0  0  0  0  0  0  0  0  0  0
   20.9875   20.0075   57.2243 H   0  0  0  0  0  0  0  0  0  0  0  0
  1  2  1  0
  1  7  1  0
  1 10  1  0
  2  3  1  0
  3  4  1  0
  3  8  1  0
  4  5  1  0
  4  9  1  0
  5  6  1  0
  5 10  1  0
  6 11  1  0
 12 11  1  6
 12 13  1  0
 12 14  2  0
 12 15  1  0
  1 16  1  6
  2 17  1  0
  2 18  1  0
  3 19  1  1
  4 20  1  6
  5 21  1  1
  6 22  1  0
  6 23  1  0
  7 24  1  0
  8 25  1  0
  9 26  1  0
 13 27  1  0
 15 28  1  0
M  END
