5tpg_ligand
     RDKit          3D

 72 76  0  0  0  0  0  0  0  0999 V2000
   14.9467   -4.5080   18.9436 C   0  0  0  0  0  0  0  0  0  0  0  0
   11.5178   -7.4740   20.4967 C   0  0  0  0  0  0  0  0  0  0  0  0
   10.3636   -8.4210   20.2837 C   0  0  0  0  0  0  0  0  0  0  0  0
    8.0048   -8.3597   19.5589 C   0  0  0  0  0  0  0  0  0  0  0  0
    5.9948  -13.2110   17.4370 F   0  0  0  0  0  0  0  0  0  0  0  0
   12.8625   -5.5619   19.7717 C   0  0  0  0  0  0  0  0  0  0  0  0
   13.7062   -5.2223   18.5576 C   0  0  2  0  0  0  0  0  0  0  0  0
   12.6085   -7.3268   18.1184 C   0  0  0  0  0  0  0  0  0  0  0  0
   14.8565   -3.2179   19.2126 O   0  0  0  0  0  1  0  0  0  0  0  0
   11.8854   -6.6104   19.2926 C   0  0  1  0  0  0  0  0  0  0  0  0
   13.8411   -6.5398   17.9720 N   0  0  0  0  0  4  0  0  0  0  0  0
    3.1599   -5.6151   21.4065 O   0  0  0  0  0  0  0  0  0  0  0  0
    4.2216   -6.5251   21.1248 S   0  0  2  0  0  6  0  0  0  0  0  0
    5.0309   -6.7728   22.2888 O   0  0  0  0  0  0  0  0  0  0  0  0
    5.2949   -5.8303   20.0614 C   0  0  0  0  0  0  0  0  0  0  0  0
    3.5873   -7.8794   20.5851 C   0  0  0  0  0  0  0  0  0  0  0  0
    2.6374   -7.8554   19.5719 C   0  0  0  0  0  0  0  0  0  0  0  0
    2.0707   -9.0585   19.1377 C   0  0  0  0  0  0  0  0  0  0  0  0
    2.4215  -10.2618   19.7542 C   0  0  0  0  0  0  0  0  0  0  0  0
    3.9439   -9.0830   21.2024 C   0  0  0  0  0  0  0  0  0  0  0  0
    3.3668  -10.2837   20.7932 C   0  0  0  0  0  0  0  0  0  0  0  0
    3.8496  -11.5172   21.4890 C   0  0  0  0  0  0  0  0  0  0  0  0
    3.4578  -11.7845   22.7942 C   0  0  0  0  0  0  0  0  0  0  0  0
    3.9435  -12.9055   23.4637 C   0  0  0  0  0  0  0  0  0  0  0  0
    3.4185  -13.2567   25.1223 Cl  0  0  0  0  0  0  0  0  0  0  0  0
    4.8322  -13.7872   22.8768 C   0  0  0  0  0  0  0  0  0  0  0  0
    5.2676  -13.5550   21.5973 C   0  0  0  0  0  0  0  0  0  0  0  0
    4.8210  -12.4530   20.8613 C   0  0  0  0  0  0  0  0  0  0  0  0
    5.3414  -12.2653   19.4737 C   0  0  2  0  0  0  0  0  0  0  0  0
    5.5110  -13.5360   18.6425 C   0  0  2  0  0  0  0  0  0  0  0  0
    6.3645  -14.3642   19.2044 F   0  0  0  0  0  0  0  0  0  0  0  0
    4.3301  -14.1069   18.5218 F   0  0  0  0  0  0  0  0  0  0  0  0
    6.6003  -11.6479   19.6708 O   0  0  0  0  0  0  0  0  0  0  0  0
    6.6761  -10.2973   19.5558 C   0  0  0  0  0  0  0  0  0  0  0  0
    7.8997   -9.7393   19.6761 C   0  0  0  0  0  0  0  0  0  0  0  0
    5.5952   -9.5503   19.2816 N   0  0  0  0  0  0  0  0  0  0  0  0
    5.7391   -8.2276   19.1032 C   0  0  0  0  0  0  0  0  0  0  0  0
    4.6526   -7.5246   18.8432 N   0  0  0  0  0  0  0  0  0  0  0  0
    6.9290   -7.6423   19.2356 N   0  0  0  0  0  0  0  0  0  0  0  0
    9.2485   -7.7775   19.6070 N   0  0  0  0  0  0  0  0  0  0  0  0
    9.3933   -6.7044   18.6242 C   0  0  0  0  0  0  0  0  0  0  0  0
   10.6240   -5.8835   18.8875 C   0  0  0  0  0  0  0  0  0  0  0  0
   16.0133   -5.1058   19.0504 O   0  0  0  0  0  0  0  0  0  0  0  0
   12.4009   -8.0706   20.7689 H   0  0  0  0  0  0  0  0  0  0  0  0
   11.2576   -6.8032   21.3288 H   0  0  0  0  0  0  0  0  0  0  0  0
   10.0208   -8.7888   21.2621 H   0  0  0  0  0  0  0  0  0  0  0  0
   10.7080   -9.2689   19.6733 H   0  0  0  0  0  0  0  0  0  0  0  0
   12.3269   -4.6709   20.1311 H   0  0  0  0  0  0  0  0  0  0  0  0
   13.4924   -5.9620   20.5799 H   0  0  0  0  0  0  0  0  0  0  0  0
   13.1532   -4.5687   17.8670 H   0  0  0  0  0  0  0  0  0  0  0  0
   12.0041   -7.2925   17.1999 H   0  0  0  0  0  0  0  0  0  0  0  0
   12.8335   -8.3737   18.3704 H   0  0  0  0  0  0  0  0  0  0  0  0
   14.5957   -7.0257   18.4308 H   0  0  0  0  0  0  0  0  0  0  0  0
   14.0518   -6.4417   16.9911 H   0  0  0  0  0  0  0  0  0  0  0  0
    5.0449   -4.7671   19.9303 H   0  0  0  0  0  0  0  0  0  0  0  0
    5.2335   -6.3437   19.0905 H   0  0  0  0  0  0  0  0  0  0  0  0
    6.3162   -5.9204   20.4599 H   0  0  0  0  0  0  0  0  0  0  0  0
    2.3388   -6.9151   19.1227 H   0  0  0  0  0  0  0  0  0  0  0  0
    1.3578   -9.0569   18.3210 H   0  0  0  0  0  0  0  0  0  0  0  0
    1.9601  -11.1869   19.4282 H   0  0  0  0  0  0  0  0  0  0  0  0
    4.6736   -9.0817   22.0040 H   0  0  0  0  0  0  0  0  0  0  0  0
    2.7685  -11.1153   23.2962 H   0  0  0  0  0  0  0  0  0  0  0  0
    5.1821  -14.6552   23.4238 H   0  0  0  0  0  0  0  0  0  0  0  0
    5.9745  -14.2418   21.1459 H   0  0  0  0  0  0  0  0  0  0  0  0
    4.6667  -11.5913   18.9255 H   0  0  0  0  0  0  0  0  0  0  0  0
    8.7755  -10.3513   19.8591 H   0  0  0  0  0  0  0  0  0  0  0  0
    3.7226   -7.9498   18.9660 H   0  0  0  0  0  0  0  0  0  0  0  0
    4.7349   -6.5510   18.5174 H   0  0  0  0  0  0  0  0  0  0  0  0
    8.5097   -6.0512   18.6746 H   0  0  0  0  0  0  0  0  0  0  0  0
    9.4659   -7.1464   17.6196 H   0  0  0  0  0  0  0  0  0  0  0  0
   10.8487   -5.3256   17.9665 H   0  0  0  0  0  0  0  0  0  0  0  0
   10.3798   -5.1766   19.6941 H   0  0  0  0  0  0  0  0  0  0  0  0
  7  1  1  0
  1  9  1  0
  1 43  2  0
  3  2  1  0
 10  2  1  1
 40  3  1  0
 35  4  2  0
  4 39  1  0
  4 40  1  0
 30  5  1  6
  6  7  1  0
 10  6  1  0
 11  7  1  0
 10  8  1  0
  8 11  1  0
 10 42  1  0
 13 12  2  0
 13 14  2  0
 13 15  1  6
 16 13  1  0
 16 17  2  0
 20 16  1  0
 18 17  1  0
 19 18  2  0
 21 19  1  0
 21 20  2  0
 22 21  1  0
 22 23  2  0
 28 22  1  0
 23 24  1  0
 24 25  1  0
 26 24  2  0
 27 26  1  0
 28 27  2  0
 29 28  1  0
 29 30  1  0
 33 29  1  0
 30 31  1  0
 30 32  1  0
 34 33  1  0
 34 35  1  0
 34 36  2  0
 36 37  1  0
 37 38  1  0
 37 39  2  0
 40 41  1  0
 41 42  1  0
  2 44  1  0
  2 45  1  0
  3 46  1  0
  3 47  1  0
  6 48  1  0
  6 49  1  0
  7 50  1  6
  8 51  1  0
  8 52  1  0
 11 53  1  0
 11 54  1  0
 15 55  1  0
 15 56  1  0
 15 57  1  0
 17 58  1  0
 18 59  1  0
 19 60  1  0
 20 61  1  0
 23 62  1  0
 26 63  1  0
 27 64  1  0
 29 65  1  6
 35 66  1  0
 38 67  1  0
 38 68  1  0
 41 69  1  0
 41 70  1  0
 42 71  1  0
 42 72  1  0
M  CHG  2   9  -1  11   1
M  END
