5tpg_ligand
     RDKit          3D

 72 76  0  0  0  0  0  0  0  0999 V2000
   57.4865   25.0669   31.9473 C   0  0  0  0  0  0  0  0  0  0  0  0
   59.2075   25.6381   36.3833 C   0  0  0  0  0  0  0  0  0  0  0  0
   59.8944   26.4331   37.4651 C   0  0  0  0  0  0  0  0  0  0  0  0
   62.1428   27.2938   38.0106 C   0  0  0  0  0  0  0  0  0  0  0  0
   60.8562   30.9943   41.6729 F   0  0  0  0  0  0  0  0  0  0  0  0
   58.8501   25.1338   34.0153 C   0  0  0  0  0  0  0  0  0  0  0  0
   58.3666   25.9018   32.7996 C   0  0  2  0  0  0  0  0  0  0  0  0
   58.5594   27.4698   34.6247 C   0  0  0  0  0  0  0  0  0  0  0  0
   57.9599   24.6636   30.7819 O   0  0  0  0  0  1  0  0  0  0  0  0
   59.3668   26.1872   34.9677 C   0  0  1  0  0  0  0  0  0  0  0  0
   57.7789   27.0539   33.4508 N   0  0  0  0  0  4  0  0  0  0  0  0
   65.8356   25.4961   38.9182 O   0  0  0  0  0  0  0  0  0  0  0  0
   66.8974   26.4181   38.6798 S   0  0  2  0  0  6  0  0  0  0  0  0
   67.0150   26.7420   37.2825 O   0  0  0  0  0  0  0  0  0  0  0  0
   68.3576   25.7006   39.0238 C   0  0  0  0  0  0  0  0  0  0  0  0
   66.6216   27.7284   39.5371 C   0  0  0  0  0  0  0  0  0  0  0  0
   67.1230   28.9563   39.1245 C   0  0  0  0  0  0  0  0  0  0  0  0
   66.8940   30.0884   39.9139 C   0  0  0  0  0  0  0  0  0  0  0  0
   66.2127   29.9708   41.1276 C   0  0  0  0  0  0  0  0  0  0  0  0
   65.9355   27.6074   40.7502 C   0  0  0  0  0  0  0  0  0  0  0  0
   65.7236   28.7251   41.5552 C   0  0  0  0  0  0  0  0  0  0  0  0
   64.9417   28.4944   42.8098 C   0  0  0  0  0  0  0  0  0  0  0  0
   65.4781   27.7329   43.8399 C   0  0  0  0  0  0  0  0  0  0  0  0
   64.7353   27.4736   44.9895 C   0  0  0  0  0  0  0  0  0  0  0  0
   65.4357   26.5224   46.3141 Cl  0  0  0  0  0  0  0  0  0  0  0  0
   63.4459   27.9441   45.1559 C   0  0  0  0  0  0  0  0  0  0  0  0
   62.8625   28.6817   44.1578 C   0  0  0  0  0  0  0  0  0  0  0  0
   63.5475   28.9857   42.9770 C   0  0  0  0  0  0  0  0  0  0  0  0
   62.8455   29.7927   41.9342 C   0  0  2  0  0  0  0  0  0  0  0  0
   61.9458   30.9160   42.4472 C   0  0  2  0  0  0  0  0  0  0  0  0
   61.5444   30.6825   43.6778 F   0  0  0  0  0  0  0  0  0  0  0  0
   62.6263   32.0426   42.3931 F   0  0  0  0  0  0  0  0  0  0  0  0
   62.0692   28.8346   41.2383 O   0  0  0  0  0  0  0  0  0  0  0  0
   62.5593   28.3368   40.0742 C   0  0  0  0  0  0  0  0  0  0  0  0
   61.6674   27.8066   39.2103 C   0  0  0  0  0  0  0  0  0  0  0  0
   63.8636   28.4138   39.7670 N   0  0  0  0  0  0  0  0  0  0  0  0
   64.2834   27.9743   38.5700 C   0  0  0  0  0  0  0  0  0  0  0  0
   65.5741   28.0588   38.3068 N   0  0  0  0  0  0  0  0  0  0  0  0
   63.4327   27.4265   37.7027 N   0  0  0  0  0  0  0  0  0  0  0  0
   61.2461   26.8142   37.0865 N   0  0  0  0  0  0  0  0  0  0  0  0
   61.6662   27.0936   35.7140 C   0  0  0  0  0  0  0  0  0  0  0  0
   60.8529   26.3107   34.7224 C   0  0  0  0  0  0  0  0  0  0  0  0
   56.3713   24.7274   32.3315 O   0  0  0  0  0  0  0  0  0  0  0  0
   58.1329   25.6058   36.6160 H   0  0  0  0  0  0  0  0  0  0  0  0
   59.6172   24.6175   36.3998 H   0  0  0  0  0  0  0  0  0  0  0  0
   59.9405   25.8230   38.3793 H   0  0  0  0  0  0  0  0  0  0  0  0
   59.3104   27.3444   37.6614 H   0  0  0  0  0  0  0  0  0  0  0  0
   59.6546   24.4372   33.7369 H   0  0  0  0  0  0  0  0  0  0  0  0
   58.0214   24.5732   34.4724 H   0  0  0  0  0  0  0  0  0  0  0  0
   59.2145   26.2246   32.1778 H   0  0  0  0  0  0  0  0  0  0  0  0
   59.2295   28.3070   34.3795 H   0  0  0  0  0  0  0  0  0  0  0  0
   57.9010   27.7588   35.4571 H   0  0  0  0  0  0  0  0  0  0  0  0
   56.8436   26.8209   33.7460 H   0  0  0  0  0  0  0  0  0  0  0  0
   57.7435   27.8180   32.7943 H   0  0  0  0  0  0  0  0  0  0  0  0
   68.5332   25.7287   40.1094 H   0  0  0  0  0  0  0  0  0  0  0  0
   69.1634   26.2434   38.5080 H   0  0  0  0  0  0  0  0  0  0  0  0
   68.3421   24.6553   38.6818 H   0  0  0  0  0  0  0  0  0  0  0  0
   67.6854   29.0365   38.2012 H   0  0  0  0  0  0  0  0  0  0  0  0
   67.2461   31.0587   39.5830 H   0  0  0  0  0  0  0  0  0  0  0  0
   66.0601   30.8485   41.7451 H   0  0  0  0  0  0  0  0  0  0  0  0
   65.5665   26.6384   41.0660 H   0  0  0  0  0  0  0  0  0  0  0  0
   66.4830   27.3369   43.7485 H   0  0  0  0  0  0  0  0  0  0  0  0
   62.9003   27.7316   46.0682 H   0  0  0  0  0  0  0  0  0  0  0  0
   61.8467   29.0375   44.2871 H   0  0  0  0  0  0  0  0  0  0  0  0
   63.5933   30.2396   41.2626 H   0  0  0  0  0  0  0  0  0  0  0  0
   60.6097   27.7820   39.4466 H   0  0  0  0  0  0  0  0  0  0  0  0
   66.2529   28.1350   39.0776 H   0  0  0  0  0  0  0  0  0  0  0  0
   65.9023   28.0485   37.3306 H   0  0  0  0  0  0  0  0  0  0  0  0
   62.7262   26.8217   35.6016 H   0  0  0  0  0  0  0  0  0  0  0  0
   61.5397   28.1675   35.5124 H   0  0  0  0  0  0  0  0  0  0  0  0
   60.9843   26.7892   33.7407 H   0  0  0  0  0  0  0  0  0  0  0  0
   61.2658   25.2916   34.6920 H   0  0  0  0  0  0  0  0  0  0  0  0
  7  1  1  0
  1  9  1  0
  1 43  2  0
  3  2  1  0
 10  2  1  1
 40  3  1  0
 35  4  2  0
  4 39  1  0
  4 40  1  0
 30  5  1  6
  6  7  1  0
 10  6  1  0
 11  7  1  0
 10  8  1  0
  8 11  1  0
 10 42  1  0
 13 12  2  0
 13 14  2  0
 13 15  1  1
 16 13  1  0
 16 17  2  0
 20 16  1  0
 18 17  1  0
 19 18  2  0
 21 19  1  0
 21 20  2  0
 22 21  1  0
 22 23  2  0
 28 22  1  0
 23 24  1  0
 24 25  1  0
 26 24  2  0
 27 26  1  0
 28 27  2  0
 29 28  1  0
 29 30  1  0
 33 29  1  0
 30 31  1  0
 30 32  1  0
 34 33  1  0
 34 35  1  0
 34 36  2  0
 36 37  1  0
 37 38  1  0
 37 39  2  0
 40 41  1  0
 41 42  1  0
  2 44  1  0
  2 45  1  0
  3 46  1  0
  3 47  1  0
  6 48  1  0
  6 49  1  0
  7 50  1  6
  8 51  1  0
  8 52  1  0
 11 53  1  0
 11 54  1  0
 15 55  1  0
 15 56  1  0
 15 57  1  0
 17 58  1  0
 18 59  1  0
 19 60  1  0
 20 61  1  0
 23 62  1  0
 26 63  1  0
 27 64  1  0
 29 65  1  6
 35 66  1  0
 38 67  1  0
 38 68  1  0
 41 69  1  0
 41 70  1  0
 42 71  1  0
 42 72  1  0
M  CHG  2   9  -1  11   1
M  END
