4daf_ligand
     RDKit          3D

 27 28  0  0  0  0  0  0  0  0999 V2000
   -5.9988  -14.5950  -21.0919 O   0  0  0  0  0  0  0  0  0  0  0  0
   -6.4103  -15.9475  -21.1027 C   0  0  0  0  0  0  0  0  0  0  0  0
   -6.9952  -16.4447  -22.2043 N   0  0  0  0  0  0  0  0  0  0  0  0
   -7.3618  -17.7244  -22.2983 C   0  0  0  0  0  0  0  0  0  0  0  0
   -7.9724  -18.2194  -23.4957 N   0  0  0  0  0  0  0  0  0  0  0  0
   -7.1787  -18.5538  -21.2637 N   0  0  0  0  0  0  0  0  0  0  0  0
   -6.6067  -18.1338  -20.1227 C   0  0  0  0  0  0  0  0  0  0  0  0
   -6.2015  -16.8070  -20.0108 C   0  0  0  0  0  0  0  0  0  0  0  0
   -5.6017  -16.4273  -18.7656 C   0  0  0  0  0  0  0  0  0  0  0  0
   -5.1951  -15.1141  -18.5190 O   0  0  0  0  0  0  0  0  0  0  0  0
   -6.4330  -18.9928  -19.1431 N   0  0  0  0  0  0  0  0  0  0  0  0
   -5.8779  -18.6488  -17.9931 N   0  0  0  0  0  0  0  0  0  0  0  0
   -5.4603  -17.4053  -17.7730 C   0  0  0  0  0  0  0  0  0  0  0  0
   -4.8422  -17.0456  -16.4106 C   0  0  1  0  0  0  0  0  0  0  0  0
   -3.3667  -16.7338  -16.5857 C   0  0  0  0  0  0  0  0  0  0  0  0
   -5.4115  -15.8698  -15.6909 C   0  0  0  0  0  0  0  0  0  0  0  0
   -6.6541  -15.6984  -15.6442 O   0  0  0  0  0  0  0  0  0  0  0  0
   -4.6665  -14.9749  -15.2962 O   0  0  0  0  0  0  0  0  0  0  0  0
   -7.1650  -15.8238  -22.9955 H   0  0  0  0  0  0  0  0  0  0  0  0
   -8.2638  -19.1952  -23.5539 H   0  0  0  0  0  0  0  0  0  0  0  0
   -8.1159  -17.5961  -24.2903 H   0  0  0  0  0  0  0  0  0  0  0  0
   -4.8328  -15.0537  -17.6320 H   0  0  0  0  0  0  0  0  0  0  0  0
   -5.0609  -17.9278  -15.8089 H   0  0  0  0  0  0  0  0  0  0  0  0
   -2.8590  -17.6054  -16.9989 H   0  0  0  0  0  0  0  0  0  0  0  0
   -3.2533  -15.8894  -17.2656 H   0  0  0  0  0  0  0  0  0  0  0  0
   -2.9322  -16.4836  -15.6179 H   0  0  0  0  0  0  0  0  0  0  0  0
   -7.0955  -16.4580  -16.0311 H   0  0  0  0  0  0  0  0  0  0  0  0
  1  2  2  0
  2  3  1  0
  2  8  1  0
  3  4  1  0
  4  5  1  0
  4  6  2  0
  6  7  1  0
  7  8  2  0
  7 11  1  0
  8  9  1  0
  9 10  1  0
  9 13  2  0
 11 12  2  0
 12 13  1  0
 13 14  1  0
 14 15  1  0
 14 16  1  0
 16 17  1  0
 16 18  2  0
  3 19  1  0
  5 20  1  0
  5 21  1  0
 10 22  1  0
 14 23  1  1
 15 24  1  0
 15 25  1  0
 15 26  1  0
 17 27  1  0
M  END
