4cd6_ligand
     RDKit          3D

 45 46  0  0  0  0  0  0  0  0999 V2000
   52.7430   26.5151   38.2417 O   0  0  0  0  0  0  0  0  0  0  0  0
   53.7474   27.0237   39.1403 C   0  0  1  0  0  0  0  0  0  0  0  0
   54.2732   28.3307   38.5636 C   0  0  2  0  0  0  0  0  0  0  0  0
   55.0389   28.0198   37.3915 O   0  0  0  0  0  0  0  0  0  0  0  0
   55.0945   29.1755   39.5518 C   0  0  0  0  0  0  0  0  0  0  0  0
   54.5832   29.0809   40.9227 N   0  0  0  0  0  0  0  0  0  0  0  0
   54.1497   27.7869   41.4701 C   0  0  0  0  0  0  0  0  0  0  0  0
   53.1152   27.2052   40.5217 C   0  0  2  0  0  0  0  0  0  0  0  0
   52.4418   25.9474   41.0730 C   0  0  0  0  0  0  0  0  0  0  0  0
   53.3648   24.9283   41.4848 O   0  0  0  0  0  0  0  0  0  0  0  0
   52.9384   25.9695   36.9409 C   0  0  1  0  0  0  0  0  0  0  0  0
   51.8040   26.1574   35.9479 C   0  0  2  0  0  0  0  0  0  0  0  0
   52.3657   25.7835   34.5797 C   0  0  2  0  0  0  0  0  0  0  0  0
   53.6105   26.6126   34.2898 C   0  0  1  0  0  0  0  0  0  0  0  0
   54.6467   26.5704   35.4266 C   0  0  1  0  0  0  0  0  0  0  0  0
   55.8320   27.4917   35.1028 C   0  0  0  0  0  0  0  0  0  0  0  0
   51.3104   27.5174   35.9539 O   0  0  0  0  0  0  0  0  0  0  0  0
   51.4142   26.0144   33.5442 O   0  0  0  0  0  0  0  0  0  0  0  0
   54.2214   26.1041   33.1078 O   0  0  0  0  0  0  0  0  0  0  0  0
   53.9946   26.9026   36.6686 O   0  0  0  0  0  0  0  0  0  0  0  0
   56.8974   26.7962   34.4326 O   0  0  0  0  0  0  0  0  0  0  0  0
   54.5878   26.3382   39.2500 H   0  0  0  0  0  0  0  0  0  0  0  0
   53.4140   28.9560   38.3208 H   0  0  0  0  0  0  0  0  0  0  0  0
   54.9116   27.0960   37.1632 H   0  0  0  0  0  0  0  0  0  0  0  0
   55.0326   30.2178   39.2387 H   0  0  0  0  0  0  0  0  0  0  0  0
   56.1186   28.8025   39.5461 H   0  0  0  0  0  0  0  0  0  0  0  0
   53.7345   29.6468   40.9138 H   0  0  0  0  0  0  0  0  0  0  0  0
   55.3768   29.3470   41.5056 H   0  0  0  0  0  0  0  0  0  0  0  0
   53.7202   27.9205   42.4631 H   0  0  0  0  0  0  0  0  0  0  0  0
   55.0000   27.1113   41.5635 H   0  0  0  0  0  0  0  0  0  0  0  0
   52.2897   27.9095   40.4182 H   0  0  0  0  0  0  0  0  0  0  0  0
   51.8313   25.5285   40.2730 H   0  0  0  0  0  0  0  0  0  0  0  0
   51.8713   26.2437   41.9533 H   0  0  0  0  0  0  0  0  0  0  0  0
   53.1096   24.0897   41.0932 H   0  0  0  0  0  0  0  0  0  0  0  0
   53.0764   24.8902   36.8755 H   0  0  0  0  0  0  0  0  0  0  0  0
   50.9530   25.5292   36.2110 H   0  0  0  0  0  0  0  0  0  0  0  0
   52.6099   24.7214   34.6019 H   0  0  0  0  0  0  0  0  0  0  0  0
   53.2922   27.6491   34.1792 H   0  0  0  0  0  0  0  0  0  0  0  0
   55.0606   25.5673   35.5295 H   0  0  0  0  0  0  0  0  0  0  0  0
   56.2223   27.8831   36.0422 H   0  0  0  0  0  0  0  0  0  0  0  0
   55.4755   28.2814   34.4415 H   0  0  0  0  0  0  0  0  0  0  0  0
   50.8757   27.7025   35.1182 H   0  0  0  0  0  0  0  0  0  0  0  0
   51.4526   26.9352   33.2754 H   0  0  0  0  0  0  0  0  0  0  0  0
   55.1143   26.4492   33.0365 H   0  0  0  0  0  0  0  0  0  0  0  0
   56.8877   27.0212   33.4994 H   0  0  0  0  0  0  0  0  0  0  0  0
  1  2  1  0
  1 11  1  0
  2  3  1  0
  2  8  1  0
  3  4  1  0
  3  5  1  0
  5  6  1  0
  6  7  1  0
  7  8  1  0
  8  9  1  0
  9 10  1  0
 11 12  1  0
 11 20  1  0
 12 13  1  0
 12 17  1  0
 13 14  1  0
 13 18  1  0
 14 15  1  0
 14 19  1  0
 15 16  1  0
 15 20  1  0
 16 21  1  0
  2 22  1  1
  3 23  1  6
  4 24  1  0
  5 25  1  0
  5 26  1  0
  6 27  1  0
  6 28  1  0
  7 29  1  0
  7 30  1  0
  8 31  1  6
  9 32  1  0
  9 33  1  0
 10 34  1  0
 11 35  1  1
 12 36  1  1
 13 37  1  1
 14 38  1  6
 15 39  1  1
 16 40  1  0
 16 41  1  0
 17 42  1  0
 18 43  1  0
 19 44  1  0
 21 45  1  0
M  CHG  1   6   1
M  END
