1bt6_ligand
     RDKit          3D

182182  0  0  0  0  0  0  0  0999 V2000
   -4.4122   20.4927    3.4144 C   0  0  0  0  0  0  0  0  0  0  0  0
   -3.3324   20.1899    2.9131 O   0  0  0  0  0  0  0  0  0  0  0  0
   -4.5670   21.7633    4.2148 C   0  0  0  0  0  0  0  0  0  0  0  0
   -5.6320   19.9727    3.4015 N   0  0  0  0  0  0  0  0  0  0  0  0
   -6.7332   20.4580    4.1226 C   0  0  2  0  0  0  0  0  0  0  0  0
   -6.1166   21.5067    5.0674 C   0  0  0  0  0  0  0  0  0  0  0  0
   -6.3924   22.7175    5.0507 O   0  0  0  0  0  0  0  0  0  0  0  0
   -7.6463   19.4440    4.7906 C   0  0  0  0  0  0  0  0  0  0  0  0
   -8.4778   20.1966    5.6740 O   0  0  0  0  0  0  0  0  0  0  0  0
   -5.0457   21.0688    5.7519 N   0  0  0  0  0  0  0  0  0  0  0  0
   -3.7127   21.3652    5.1536 C   0  0  2  0  0  0  0  0  0  0  0  0
   -3.7440   21.5346    3.6548 C   0  0  0  0  0  0  0  0  0  0  0  0
   -2.9546   22.2775    2.7424 O   0  0  0  0  0  0  0  0  0  0  0  0
   -2.6282   20.5768    5.7684 C   0  0  2  0  0  0  0  0  0  0  0  0
   -1.6675   19.9926    4.9716 O   0  0  0  0  0  0  0  0  0  0  0  0
   -2.9943   19.7655    6.9651 C   0  0  0  0  0  0  0  0  0  0  0  0
   -4.5291   20.7664    2.8587 N   0  0  0  0  0  0  0  0  0  0  0  0
   -4.9295   21.2506    1.5239 C   0  0  2  0  0  0  0  0  0  0  0  0
   -5.0156   22.7540    1.5576 C   0  0  0  0  0  0  0  0  0  0  0  0
   -4.0919   23.4525    1.1382 O   0  0  0  0  0  0  0  0  0  0  0  0
   -6.2904   20.6185    1.0226 C   0  0  1  0  0  0  0  0  0  0  0  0
   -6.1641   19.3071    0.3097 C   0  0  0  0  0  0  0  0  0  0  0  0
   -7.1851   20.4086    2.2422 C   0  0  0  0  0  0  0  0  0  0  0  0
   -6.1389   23.2494    2.0732 N   0  0  0  0  0  0  0  0  0  0  0  0
   -6.7914   24.4264    1.4748 C   0  0  2  0  0  0  0  0  0  0  0  0
   -5.7730   25.5328    1.2573 C   0  0  0  0  0  0  0  0  0  0  0  0
   -5.3277   25.7242    0.1320 O   0  0  0  0  0  0  0  0  0  0  0  0
   -7.9807   24.8603    2.3106 C   0  0  0  0  0  0  0  0  0  0  0  0
   -7.8242   26.2856    2.7472 C   0  0  0  0  0  0  0  0  0  0  0  0
   -7.0641   26.6902    3.7988 N   0  0  0  0  0  0  0  0  0  0  0  0
   -8.3930   27.4250    2.2541 C   0  0  0  0  0  0  0  0  0  0  0  0
   -7.1780   27.9677    4.0135 C   0  0  0  0  0  0  0  0  0  0  0  0
   -7.9555   28.4382    3.0612 N   0  0  0  0  0  0  0  0  0  0  0  0
   -5.2817   26.2006    2.2806 N   0  0  0  0  0  0  0  0  0  0  0  0
   -3.9572   26.7708    2.3451 C   0  0  2  0  0  0  0  0  0  0  0  0
   -2.9314   25.7240    2.6896 C   0  0  0  0  0  0  0  0  0  0  0  0
   -3.3219   24.6991    3.2719 O   0  0  0  0  0  0  0  0  0  0  0  0
   -3.8412   27.9003    3.3609 C   0  0  0  0  0  0  0  0  0  0  0  0
   -4.6420   29.1548    2.9650 C   0  0  0  0  0  0  0  0  0  0  0  0
   -3.9446   29.9656    1.8665 C   0  0  0  0  0  0  0  0  0  0  0  0
   -4.6720   30.3463    0.9162 O   0  0  0  0  0  1  0  0  0  0  0  0
   -2.7208   30.2206    1.9656 O   0  0  0  0  0  0  0  0  0  0  0  0
   -1.6501   25.9540    2.3583 N   0  0  0  0  0  0  0  0  0  0  0  0
   -1.2301   27.3774    2.4460 C   0  0  2  0  0  0  0  0  0  0  0  0
   -2.4276   28.1903    2.8854 C   0  0  0  0  0  0  0  0  0  0  0  0
   -2.8238   28.0659    4.0456 O   0  0  0  0  0  0  0  0  0  0  0  0
   -0.6183   27.9046    1.1443 C   0  0  2  0  0  0  0  0  0  0  0  0
    0.7786   27.3685    1.0041 C   0  0  0  0  0  0  0  0  0  0  0  0
   -0.6985   29.4143    1.0314 C   0  0  0  0  0  0  0  0  0  0  0  0
    1.4269   27.2387   -0.3291 C   0  0  0  0  0  0  0  0  0  0  0  0
   -3.0716   29.0092    2.0266 N   0  0  0  0  0  0  0  0  0  0  0  0
   -4.3824   29.5213    2.4685 C   0  0  2  0  0  0  0  0  0  0  0  0
   -5.3603   28.4174    2.8039 C   0  0  0  0  0  0  0  0  0  0  0  0
   -5.8914   28.3317    3.9012 O   0  0  0  0  0  0  0  0  0  0  0  0
   -4.9584   30.6163    1.5874 C   0  0  0  0  0  0  0  0  0  0  0  0
   -3.8516   31.6407    1.1531 C   0  0  1  0  0  0  0  0  0  0  0  0
   -4.4906   32.9208    0.6814 C   0  0  0  0  0  0  0  0  0  0  0  0
   -2.8585   31.8261    2.2621 C   0  0  0  0  0  0  0  0  0  0  0  0
   -5.5587   27.5417    1.8140 N   0  0  0  0  0  0  0  0  0  0  0  0
   -6.8620   27.0271    1.4014 C   0  0  2  0  0  0  0  0  0  0  0  0
   -7.8061   26.8304    2.5663 C   0  0  0  0  0  0  0  0  0  0  0  0
   -8.7636   26.0906    2.3848 O   0  0  0  0  0  0  0  0  0  0  0  0
   -6.6910   25.7677    0.5491 C   0  0  0  0  0  0  0  0  0  0  0  0
   -6.7443   26.2655   -0.8206 O   0  0  0  0  0  0  0  0  0  0  0  0
   -7.6755   27.5051    3.6882 N   0  0  0  0  0  0  0  0  0  0  0  0
   -8.6733   27.5742    4.7450 C   0  0  2  0  0  0  0  0  0  0  0  0
   -8.7395   26.2665    5.5530 C   0  0  0  0  0  0  0  0  0  0  0  0
   -8.4774   26.2016    6.7602 O   0  0  0  0  0  0  0  0  0  0  0  0
  -10.0851   27.8256    4.2018 C   0  0  0  0  0  0  0  0  0  0  0  0
  -11.0309   28.5171    5.1544 C   0  0  0  0  0  0  0  0  0  0  0  0
  -12.3084   28.9286    4.4330 C   0  0  0  0  0  0  0  0  0  0  0  0
  -13.4309   29.1927    5.4299 C   0  0  0  0  0  0  0  0  0  0  0  0
  -13.4519   30.6308    5.8501 N   0  0  0  0  0  4  0  0  0  0  0  0
   -9.1748   25.1879    4.9134 N   0  0  0  0  0  0  0  0  0  0  0  0
   -8.8964   23.8406    5.4262 C   0  0  2  0  0  0  0  0  0  0  0  0
   -8.4799   23.0283    4.1931 C   0  0  0  0  0  0  0  0  0  0  0  0
   -7.3384   22.6531    4.0651 O   0  0  0  0  0  0  0  0  0  0  0  0
  -10.0581   23.2055    6.1290 C   0  0  0  0  0  0  0  0  0  0  0  0
  -10.8849   23.9764    7.1402 C   0  0  1  0  0  0  0  0  0  0  0  0
  -12.2076   23.2626    7.3952 C   0  0  0  0  0  0  0  0  0  0  0  0
  -10.1321   24.2347    8.4274 C   0  0  0  0  0  0  0  0  0  0  0  0
   -9.4737   22.8449    3.3245 N   0  0  0  0  0  0  0  0  0  0  0  0
  -10.7304   22.1821    3.5783 C   0  0  2  0  0  0  0  0  0  0  0  0
  -11.8543   22.5835    2.6220 C   0  0  0  0  0  0  0  0  0  0  0  0
  -11.6866   22.4017    1.3760 O   0  0  0  0  0  0  0  0  0  0  0  0
  -11.1634   22.4657    5.0340 C   0  0  0  0  0  0  0  0  0  0  0  0
  -10.0578   22.2448    5.8939 O   0  0  0  0  0  0  0  0  0  0  0  0
  -12.9836   23.1118    3.0852 O   0  0  0  0  0  0  0  0  0  0  0  0
   -4.9615   21.5221    5.2129 H   0  0  0  0  0  0  0  0  0  0  0  0
   -5.2644   22.4393    3.6984 H   0  0  0  0  0  0  0  0  0  0  0  0
   -3.5880   22.2542    4.3164 H   0  0  0  0  0  0  0  0  0  0  0  0
   -5.7794   19.1661    2.8291 H   0  0  0  0  0  0  0  0  0  0  0  0
   -7.3774   20.9914    3.4081 H   0  0  0  0  0  0  0  0  0  0  0  0
   -7.0546   18.7080    5.3547 H   0  0  0  0  0  0  0  0  0  0  0  0
   -8.2576   18.9240    4.0383 H   0  0  0  0  0  0  0  0  0  0  0  0
   -7.9364   20.7631    6.2109 H   0  0  0  0  0  0  0  0  0  0  0  0
   -5.1380   20.5719    6.6147 H   0  0  0  0  0  0  0  0  0  0  0  0
   -3.4932   22.3856    5.5010 H   0  0  0  0  0  0  0  0  0  0  0  0
   -2.0417   21.3849    6.2297 H   0  0  0  0  0  0  0  0  0  0  0  0
   -1.4305   20.5910    4.2728 H   0  0  0  0  0  0  0  0  0  0  0  0
   -2.3942   20.0923    7.8271 H   0  0  0  0  0  0  0  0  0  0  0  0
   -2.7962   18.7027    6.7623 H   0  0  0  0  0  0  0  0  0  0  0  0
   -4.0625   19.9033    7.1887 H   0  0  0  0  0  0  0  0  0  0  0  0
   -4.8370   19.8699    3.1773 H   0  0  0  0  0  0  0  0  0  0  0  0
   -4.1452   20.9632    0.8082 H   0  0  0  0  0  0  0  0  0  0  0  0
   -6.7662   21.3343    0.3361 H   0  0  0  0  0  0  0  0  0  0  0  0
   -7.1578   18.9745   -0.0249 H   0  0  0  0  0  0  0  0  0  0  0  0
   -5.7376   18.5579    0.9928 H   0  0  0  0  0  0  0  0  0  0  0  0
   -5.5044   19.4258   -0.5624 H   0  0  0  0  0  0  0  0  0  0  0  0
   -8.0925   19.8640    1.9419 H   0  0  0  0  0  0  0  0  0  0  0  0
   -7.4661   21.3852    2.6633 H   0  0  0  0  0  0  0  0  0  0  0  0
   -6.6413   19.8253    2.9999 H   0  0  0  0  0  0  0  0  0  0  0  0
   -6.5451   22.8163    2.8778 H   0  0  0  0  0  0  0  0  0  0  0  0
   -7.1758   24.1345    0.4863 H   0  0  0  0  0  0  0  0  0  0  0  0
   -8.0532   24.2156    3.1990 H   0  0  0  0  0  0  0  0  0  0  0  0
   -8.8984   24.7640    1.7118 H   0  0  0  0  0  0  0  0  0  0  0  0
   -6.4700   26.0612    4.3578 H   0  0  0  0  0  0  0  0  0  0  0  0
   -9.0576   27.5093    1.3955 H   0  0  0  0  0  0  0  0  0  0  0  0
   -6.7204   28.5363    4.8217 H   0  0  0  0  0  0  0  0  0  0  0  0
   -5.8739   26.3225    3.0771 H   0  0  0  0  0  0  0  0  0  0  0  0
   -3.7219   27.1780    1.3507 H   0  0  0  0  0  0  0  0  0  0  0  0
   -2.7810   28.1776    3.4561 H   0  0  0  0  0  0  0  0  0  0  0  0
   -4.2142   27.5386    4.3305 H   0  0  0  0  0  0  0  0  0  0  0  0
   -4.7630   29.7925    3.8530 H   0  0  0  0  0  0  0  0  0  0  0  0
   -5.6317   28.8425    2.6002 H   0  0  0  0  0  0  0  0  0  0  0  0
   -1.0273   25.2247    2.0749 H   0  0  0  0  0  0  0  0  0  0  0  0
   -0.4568   27.4568    3.2241 H   0  0  0  0  0  0  0  0  0  0  0  0
   -1.2103   27.4954    0.3124 H   0  0  0  0  0  0  0  0  0  0  0  0
    0.7712   26.3611    1.4459 H   0  0  0  0  0  0  0  0  0  0  0  0
    1.4261   28.0265    1.6023 H   0  0  0  0  0  0  0  0  0  0  0  0
   -1.5105   29.6878    0.3416 H   0  0  0  0  0  0  0  0  0  0  0  0
    0.2557   29.8045    0.6476 H   0  0  0  0  0  0  0  0  0  0  0  0
   -0.8989   29.8461    2.0231 H   0  0  0  0  0  0  0  0  0  0  0  0
    0.7723   26.6641   -1.0007 H   0  0  0  0  0  0  0  0  0  0  0  0
    2.3890   26.7168   -0.2198 H   0  0  0  0  0  0  0  0  0  0  0  0
    1.5987   28.2395   -0.7522 H   0  0  0  0  0  0  0  0  0  0  0  0
   -2.6814   29.2551    1.1393 H   0  0  0  0  0  0  0  0  0  0  0  0
   -4.1798   30.0186    3.4285 H   0  0  0  0  0  0  0  0  0  0  0  0
   -5.7416   31.1504    2.1454 H   0  0  0  0  0  0  0  0  0  0  0  0
   -5.3961   30.1591    0.6878 H   0  0  0  0  0  0  0  0  0  0  0  0
   -3.3084   31.2129    0.2976 H   0  0  0  0  0  0  0  0  0  0  0  0
   -3.7407   33.7256    0.6784 H   0  0  0  0  0  0  0  0  0  0  0  0
   -5.3148   33.1903    1.3581 H   0  0  0  0  0  0  0  0  0  0  0  0
   -4.8828   32.7814   -0.3369 H   0  0  0  0  0  0  0  0  0  0  0  0
   -2.8736   30.9439    2.9190 H   0  0  0  0  0  0  0  0  0  0  0  0
   -3.1220   32.7214    2.8444 H   0  0  0  0  0  0  0  0  0  0  0  0
   -1.8519   31.9489    1.8361 H   0  0  0  0  0  0  0  0  0  0  0  0
   -4.7543   27.2142    1.3182 H   0  0  0  0  0  0  0  0  0  0  0  0
   -7.3193   27.7909    0.7553 H   0  0  0  0  0  0  0  0  0  0  0  0
   -7.5054   25.0528    0.7383 H   0  0  0  0  0  0  0  0  0  0  0  0
   -5.7241   25.2845    0.7531 H   0  0  0  0  0  0  0  0  0  0  0  0
   -5.9677   25.9832   -1.2893 H   0  0  0  0  0  0  0  0  0  0  0  0
   -6.8234   28.0102    3.8254 H   0  0  0  0  0  0  0  0  0  0  0  0
   -8.3974   28.3994    5.4180 H   0  0  0  0  0  0  0  0  0  0  0  0
  -10.5239   26.8533    3.9337 H   0  0  0  0  0  0  0  0  0  0  0  0
   -9.9959   28.4489    3.2998 H   0  0  0  0  0  0  0  0  0  0  0  0
  -10.5417   29.4133    5.5636 H   0  0  0  0  0  0  0  0  0  0  0  0
  -11.2841   27.8303    5.9754 H   0  0  0  0  0  0  0  0  0  0  0  0
  -12.6139   28.1212    3.7513 H   0  0  0  0  0  0  0  0  0  0  0  0
  -12.1170   29.8443    3.8543 H   0  0  0  0  0  0  0  0  0  0  0  0
  -13.2789   28.5612    6.3177 H   0  0  0  0  0  0  0  0  0  0  0  0
  -14.3939   28.9413    4.9615 H   0  0  0  0  0  0  0  0  0  0  0  0
  -12.8312   30.7609    6.6336 H   0  0  0  0  0  0  0  0  0  0  0  0
  -14.3888   30.8892    6.1172 H   0  0  0  0  0  0  0  0  0  0  0  0
  -13.1496   31.2097    5.0823 H   0  0  0  0  0  0  0  0  0  0  0  0
   -9.7003   25.2946    4.0694 H   0  0  0  0  0  0  0  0  0  0  0  0
   -8.0582   23.8913    6.1367 H   0  0  0  0  0  0  0  0  0  0  0  0
   -9.6595   22.3271    6.6578 H   0  0  0  0  0  0  0  0  0  0  0  0
  -10.7546   22.8759    5.3440 H   0  0  0  0  0  0  0  0  0  0  0  0
  -11.1162   24.9565    6.6976 H   0  0  0  0  0  0  0  0  0  0  0  0
  -13.0409   23.9220    7.1110 H   0  0  0  0  0  0  0  0  0  0  0  0
  -12.2879   23.0096    8.4627 H   0  0  0  0  0  0  0  0  0  0  0  0
  -12.2484   22.3411    6.7960 H   0  0  0  0  0  0  0  0  0  0  0  0
   -9.0538   24.2885    8.2171 H   0  0  0  0  0  0  0  0  0  0  0  0
  -10.3269   23.4167    9.1366 H   0  0  0  0  0  0  0  0  0  0  0  0
  -10.4684   25.1866    8.8642 H   0  0  0  0  0  0  0  0  0  0  0  0
   -9.3343   23.2034    2.4015 H   0  0  0  0  0  0  0  0  0  0  0  0
  -10.5673   21.1003    3.4645 H   0  0  0  0  0  0  0  0  0  0  0  0
  -11.9875   21.7923    5.3119 H   0  0  0  0  0  0  0  0  0  0  0  0
  -11.4972   23.5100    5.1230 H   0  0  0  0  0  0  0  0  0  0  0  0
  -10.3725   21.9865    6.7524 H   0  0  0  0  0  0  0  0  0  0  0  0
  -13.2661   22.6291    3.8532 H   0  0  0  0  0  0  0  0  0  0  0  0
  1  2  2  0
  1  3  1  0
  5  4  1  0
  5  8  1  0
  6  5  1  0
  6  7  2  0
  8  9  1  0
  4  1  1  0
 11 10  1  0
 11 14  1  0
 12 11  1  0
 12 13  2  0
 14 16  1  0
 14 15  1  0
 10  6  1  0
 18 17  1  0
 18 21  1  0
 19 18  1  0
 19 20  2  0
 21 23  1  0
 21 22  1  0
 17 12  1  0
 25 24  1  0
 25 28  1  0
 26 25  1  0
 26 27  2  0
 28 29  1  0
 29 30  1  0
 29 31  2  0
 31 33  1  0
 33 32  2  0
 30 32  1  0
 24 19  1  0
 35 34  1  0
 35 38  1  0
 36 35  1  0
 36 37  2  0
 38 39  1  0
 39 40  1  0
 40 42  2  0
 40 41  1  0
 34 26  1  0
 44 43  1  0
 44 47  1  0
 45 44  1  0
 45 46  2  0
 47 49  1  0
 47 48  1  0
 48 50  1  0
 43 36  1  0
 52 51  1  0
 52 55  1  0
 53 52  1  0
 53 54  2  0
 55 56  1  0
 56 57  1  0
 56 58  1  0
 51 45  1  0
 60 59  1  0
 60 63  1  0
 61 60  1  0
 61 62  2  0
 63 64  1  0
 59 53  1  0
 66 65  1  0
 66 69  1  0
 67 66  1  0
 67 68  2  0
 69 70  1  0
 70 71  1  0
 71 72  1  0
 72 73  1  0
 65 61  1  0
 75 74  1  0
 75 78  1  0
 76 75  1  0
 76 77  2  0
 78 79  1  0
 79 80  1  0
 79 81  1  0
 74 67  1  0
 82 83  1  0
 83 86  1  0
 83 84  1  0
 84 85  2  0
 86 87  1  0
 76 82  1  0
 84 88  1  0
  3 89  1  0
  3 90  1  0
  3 91  1  0
  4 92  1  0
  5 93  1  6
  8 94  1  0
  8 95  1  0
  9 96  1  0
 10 97  1  0
 11 98  1  1
 14 99  1  1
 15100  1  0
 16101  1  0
 16102  1  0
 16103  1  0
 17104  1  0
 18105  1  6
 21106  1  6
 22107  1  0
 22108  1  0
 22109  1  0
 23110  1  0
 23111  1  0
 23112  1  0
 24113  1  0
 25114  1  6
 28115  1  0
 28116  1  0
 30117  1  0
 31118  1  0
 32119  1  0
 34120  1  0
 35121  1  6
 38122  1  0
 38123  1  0
 39124  1  0
 39125  1  0
 43126  1  0
 44127  1  1
 47128  1  6
 48129  1  0
 48130  1  0
 49131  1  0
 49132  1  0
 49133  1  0
 50134  1  0
 50135  1  0
 50136  1  0
 51137  1  0
 52138  1  1
 55139  1  0
 55140  1  0
 56141  1  6
 57142  1  0
 57143  1  0
 57144  1  0
 58145  1  0
 58146  1  0
 58147  1  0
 59148  1  0
 60149  1  6
 63150  1  0
 63151  1  0
 64152  1  0
 65153  1  0
 66154  1  1
 69155  1  0
 69156  1  0
 70157  1  0
 70158  1  0
 71159  1  0
 71160  1  0
 72161  1  0
 72162  1  0
 73163  1  0
 73164  1  0
 73165  1  0
 74166  1  0
 75167  1  1
 78168  1  0
 78169  1  0
 79170  1  6
 80171  1  0
 80172  1  0
 80173  1  0
 81174  1  0
 81175  1  0
 81176  1  0
 82177  1  0
 83178  1  1
 86179  1  0
 86180  1  0
 87181  1  0
 88182  1  0
M  CHG  2  41  -1  73   1
M  END
