2pri_ligand
     RDKit          3D

 28 28  0  0  0  0  0  0  0  0999 V2000
   10.8108   -9.0787   21.2061 C   0  0  1  0  0  0  0  0  0  0  0  0
   11.8616   -8.7390   20.0756 C   0  0  0  0  0  0  0  0  0  0  0  0
   12.1673   -7.2157   20.0090 C   0  0  2  0  0  0  0  0  0  0  0  0
   10.8625   -6.3794   19.8999 C   0  0  1  0  0  0  0  0  0  0  0  0
    9.8386   -6.7887   21.0638 C   0  0  1  0  0  0  0  0  0  0  0  0
    8.4893   -6.1571   20.8541 C   0  0  0  0  0  0  0  0  0  0  0  0
   11.3290   -8.9734   22.5365 O   0  0  0  0  0  0  0  0  0  0  0  0
   13.0035   -6.8750   18.9125 O   0  0  0  0  0  0  0  0  0  0  0  0
   11.2298   -5.0002   19.9925 O   0  0  0  0  0  0  0  0  0  0  0  0
    9.6284   -8.2224   21.0658 O   0  0  0  0  0  0  0  0  0  0  0  0
    8.2946   -5.8486   19.4980 O   0  0  0  0  0  0  0  0  0  0  0  0
    9.1521   -6.4963   18.2678 P   0  0  2  0  0  0  0  0  0  0  0  0
   10.5871   -6.1317   18.5469 O   0  0  0  0  0  0  0  0  0  0  0  0
    8.7171   -5.8605   16.9885 O   0  0  0  0  0  0  0  0  0  0  0  0
    8.7568   -7.9737   18.3441 O   0  0  0  0  0  0  0  0  0  0  0  0
   10.5456  -10.1263   21.0641 H   0  0  0  0  0  0  0  0  0  0  0  0
   11.4444   -9.0467   19.1167 H   0  0  0  0  0  0  0  0  0  0  0  0
   12.7893   -9.2647   20.3015 H   0  0  0  0  0  0  0  0  0  0  0  0
   12.6875   -6.9817   20.9378 H   0  0  0  0  0  0  0  0  0  0  0  0
   10.3582   -6.5674   18.9520 H   0  0  0  0  0  0  0  0  0  0  0  0
   10.2765   -6.4475   22.0018 H   0  0  0  0  0  0  0  0  0  0  0  0
    8.4348   -5.2378   21.4372 H   0  0  0  0  0  0  0  0  0  0  0  0
    7.7175   -6.8582   21.1716 H   0  0  0  0  0  0  0  0  0  0  0  0
   12.1360   -9.4889   22.6061 H   0  0  0  0  0  0  0  0  0  0  0  0
   13.8068   -7.3994   18.9490 H   0  0  0  0  0  0  0  0  0  0  0  0
   12.1284   -4.9311   20.3233 H   0  0  0  0  0  0  0  0  0  0  0  0
   11.1237   -6.3375   17.7780 H   0  0  0  0  0  0  0  0  0  0  0  0
    8.1595   -8.1817   17.6218 H   0  0  0  0  0  0  0  0  0  0  0  0
  1  2  1  0
  1  7  1  0
  1 10  1  0
  2  3  1  0
  3  4  1  0
  3  8  1  0
  4  5  1  0
  4  9  1  0
  5  6  1  0
  5 10  1  0
  6 11  1  0
 12 11  1  1
 12 13  1  0
 12 14  2  0
 12 15  1  0
  1 16  1  6
  2 17  1  0
  2 18  1  0
  3 19  1  1
  4 20  1  6
  5 21  1  1
  6 22  1  0
  6 23  1  0
  7 24  1  0
  8 25  1  0
  9 26  1  0
 13 27  1  0
 15 28  1  0
M  END
