5tpg_ligand
     RDKit          3D

 72 76  0  0  0  0  0  0  0  0999 V2000
  -13.8294  -17.9951  -19.8316 C   0  0  0  0  0  0  0  0  0  0  0  0
   -9.8189  -17.2220  -17.3247 C   0  0  0  0  0  0  0  0  0  0  0  0
   -8.4114  -16.7032  -17.1692 C   0  0  0  0  0  0  0  0  0  0  0  0
   -6.1297  -17.2247  -17.9537 C   0  0  0  0  0  0  0  0  0  0  0  0
   -3.3934  -13.1949  -16.7400 F   0  0  0  0  0  0  0  0  0  0  0  0
  -11.6140  -18.1154  -18.7278 C   0  0  0  0  0  0  0  0  0  0  0  0
  -12.3957  -17.6316  -19.9346 C   0  0  2  0  0  0  0  0  0  0  0  0
  -10.6573  -16.0156  -19.4948 C   0  0  0  0  0  0  0  0  0  0  0  0
  -14.3400  -18.7618  -20.7783 O   0  0  0  0  0  1  0  0  0  0  0  0
  -10.3155  -17.3433  -18.7632 C   0  0  1  0  0  0  0  0  0  0  0  0
  -12.0530  -16.2250  -19.9053 N   0  0  0  0  0  4  0  0  0  0  0  0
    1.7029  -20.8779  -18.1369 O   0  0  0  0  0  0  0  0  0  0  0  0
    0.3244  -20.5811  -17.9225 S   0  0  2  0  0  6  0  0  0  0  0  0
   -0.1968  -21.2798  -16.7772 O   0  0  0  0  0  0  0  0  0  0  0  0
   -0.5858  -21.1837  -19.1770 C   0  0  0  0  0  0  0  0  0  0  0  0
    0.1762  -19.0093  -17.7347 C   0  0  0  0  0  0  0  0  0  0  0  0
    0.4484  -18.1472  -18.7893 C   0  0  0  0  0  0  0  0  0  0  0  0
    0.3421  -16.7667  -18.5885 C   0  0  0  0  0  0  0  0  0  0  0  0
    0.0158  -16.2647  -17.3265 C   0  0  0  0  0  0  0  0  0  0  0  0
   -0.1545  -18.5103  -16.4704 C   0  0  0  0  0  0  0  0  0  0  0  0
   -0.2391  -17.1361  -16.2545 C   0  0  0  0  0  0  0  0  0  0  0  0
   -0.6420  -16.7093  -14.8782 C   0  0  0  0  0  0  0  0  0  0  0  0
   -0.0153  -17.2526  -13.7643 C   0  0  0  0  0  0  0  0  0  0  0  0
   -0.4200  -16.8958  -12.4799 C   0  0  0  0  0  0  0  0  0  0  0  0
    0.4023  -17.5728  -11.0602 Cl  0  0  0  0  0  0  0  0  0  0  0  0
   -1.4543  -16.0068  -12.2531 C   0  0  0  0  0  0  0  0  0  0  0  0
   -2.1205  -15.4601  -13.3198 C   0  0  0  0  0  0  0  0  0  0  0  0
   -1.7683  -15.7675  -14.6378 C   0  0  0  0  0  0  0  0  0  0  0  0
   -2.5415  -15.1338  -15.7478 C   0  0  2  0  0  0  0  0  0  0  0  0
   -2.6938  -13.6152  -15.6785 C   0  0  2  0  0  0  0  0  0  0  0  0
   -3.3498  -13.2495  -14.5986 F   0  0  0  0  0  0  0  0  0  0  0  0
   -1.4892  -13.0822  -15.6855 F   0  0  0  0  0  0  0  0  0  0  0  0
   -3.8138  -15.7492  -15.6610 O   0  0  0  0  0  0  0  0  0  0  0  0
   -4.2846  -16.4030  -16.7537 C   0  0  0  0  0  0  0  0  0  0  0  0
   -5.6223  -16.5624  -16.8438 C   0  0  0  0  0  0  0  0  0  0  0  0
   -3.4666  -16.8268  -17.7299 N   0  0  0  0  0  0  0  0  0  0  0  0
   -3.9920  -17.4002  -18.8241 C   0  0  0  0  0  0  0  0  0  0  0  0
   -3.1560  -17.8116  -19.7590 N   0  0  0  0  0  0  0  0  0  0  0  0
   -5.3061  -17.5916  -18.9353 N   0  0  0  0  0  0  0  0  0  0  0  0
   -7.4913  -17.3359  -18.1013 N   0  0  0  0  0  0  0  0  0  0  0  0
   -7.8651  -17.7991  -19.4369 C   0  0  0  0  0  0  0  0  0  0  0  0
   -9.3105  -18.2063  -19.4905 C   0  0  0  0  0  0  0  0  0  0  0  0
  -14.5072  -17.6300  -18.8757 O   0  0  0  0  0  0  0  0  0  0  0  0
  -10.4939  -16.5384  -16.7889 H   0  0  0  0  0  0  0  0  0  0  0  0
   -9.8659  -18.2197  -16.8640 H   0  0  0  0  0  0  0  0  0  0  0  0
   -8.0704  -16.9034  -16.1427 H   0  0  0  0  0  0  0  0  0  0  0  0
   -8.4107  -15.6183  -17.3509 H   0  0  0  0  0  0  0  0  0  0  0  0
  -11.4225  -19.1962  -18.8000 H   0  0  0  0  0  0  0  0  0  0  0  0
  -12.1650  -17.9018  -17.8000 H   0  0  0  0  0  0  0  0  0  0  0  0
  -12.0085  -18.0844  -20.8591 H   0  0  0  0  0  0  0  0  0  0  0  0
  -10.0052  -15.8641  -20.3677 H   0  0  0  0  0  0  0  0  0  0  0  0
  -10.5680  -15.1543  -18.8164 H   0  0  0  0  0  0  0  0  0  0  0  0
  -12.6599  -15.7541  -19.2525 H   0  0  0  0  0  0  0  0  0  0  0  0
  -12.1845  -15.8371  -20.8263 H   0  0  0  0  0  0  0  0  0  0  0  0
   -1.3454  -20.4431  -19.4676 H   0  0  0  0  0  0  0  0  0  0  0  0
   -1.0822  -22.1118  -18.8572 H   0  0  0  0  0  0  0  0  0  0  0  0
    0.0680  -21.3948  -20.0360 H   0  0  0  0  0  0  0  0  0  0  0  0
    0.7397  -18.5396  -19.7569 H   0  0  0  0  0  0  0  0  0  0  0  0
    0.5134  -16.0853  -19.4140 H   0  0  0  0  0  0  0  0  0  0  0  0
   -0.0412  -15.1932  -17.1730 H   0  0  0  0  0  0  0  0  0  0  0  0
   -0.3462  -19.1967  -15.6537 H   0  0  0  0  0  0  0  0  0  0  0  0
    0.7954  -17.9601  -13.8954 H   0  0  0  0  0  0  0  0  0  0  0  0
   -1.7364  -15.7439  -11.2399 H   0  0  0  0  0  0  0  0  0  0  0  0
   -2.9394  -14.7736  -13.1371 H   0  0  0  0  0  0  0  0  0  0  0  0
   -2.0617  -15.3812  -16.7062 H   0  0  0  0  0  0  0  0  0  0  0  0
   -6.2818  -16.1839  -16.0712 H   0  0  0  0  0  0  0  0  0  0  0  0
   -2.3566  -17.2218  -20.0308 H   0  0  0  0  0  0  0  0  0  0  0  0
   -3.3031  -18.7225  -20.2168 H   0  0  0  0  0  0  0  0  0  0  0  0
   -7.2396  -18.6636  -19.7042 H   0  0  0  0  0  0  0  0  0  0  0  0
   -7.6951  -16.9864  -20.1584 H   0  0  0  0  0  0  0  0  0  0  0  0
   -9.6050  -18.2300  -20.5501 H   0  0  0  0  0  0  0  0  0  0  0  0
   -9.3814  -19.2192  -19.0674 H   0  0  0  0  0  0  0  0  0  0  0  0
  7  1  1  0
  1  9  1  0
  1 43  2  0
  3  2  1  0
 10  2  1  1
 40  3  1  0
 35  4  2  0
  4 39  1  0
  4 40  1  0
 30  5  1  6
  6  7  1  0
 10  6  1  0
 11  7  1  0
 10  8  1  0
  8 11  1  0
 10 42  1  0
 13 12  2  0
 13 14  2  0
 13 15  1  6
 16 13  1  0
 16 17  2  0
 20 16  1  0
 18 17  1  0
 19 18  2  0
 21 19  1  0
 21 20  2  0
 22 21  1  0
 22 23  2  0
 28 22  1  0
 23 24  1  0
 24 25  1  0
 26 24  2  0
 27 26  1  0
 28 27  2  0
 29 28  1  0
 29 30  1  0
 33 29  1  0
 30 31  1  0
 30 32  1  0
 34 33  1  0
 34 35  1  0
 34 36  2  0
 36 37  1  0
 37 38  1  0
 37 39  2  0
 40 41  1  0
 41 42  1  0
  2 44  1  0
  2 45  1  0
  3 46  1  0
  3 47  1  0
  6 48  1  0
  6 49  1  0
  7 50  1  6
  8 51  1  0
  8 52  1  0
 11 53  1  0
 11 54  1  0
 15 55  1  0
 15 56  1  0
 15 57  1  0
 17 58  1  0
 18 59  1  0
 19 60  1  0
 20 61  1  0
 23 62  1  0
 26 63  1  0
 27 64  1  0
 29 65  1  6
 35 66  1  0
 38 67  1  0
 38 68  1  0
 41 69  1  0
 41 70  1  0
 42 71  1  0
 42 72  1  0
M  CHG  2   9  -1  11   1
M  END
