2pri_ligand
     RDKit          3D

 28 28  0  0  0  0  0  0  0  0999 V2000
   53.1614   28.7109   37.8714 C   0  0  1  0  0  0  0  0  0  0  0  0
   52.3481   27.4086   37.4967 C   0  0  0  0  0  0  0  0  0  0  0  0
   53.2775   26.2773   36.9728 C   0  0  2  0  0  0  0  0  0  0  0  0
   54.1889   26.7802   35.8193 C   0  0  1  0  0  0  0  0  0  0  0  0
   54.9668   28.1102   36.2625 C   0  0  1  0  0  0  0  0  0  0  0  0
   55.6834   28.7395   35.0989 C   0  0  0  0  0  0  0  0  0  0  0  0
   53.9376   28.5909   39.0683 O   0  0  0  0  0  0  0  0  0  0  0  0
   52.5523   25.1497   36.5033 O   0  0  0  0  0  0  0  0  0  0  0  0
   55.1017   25.7249   35.5048 O   0  0  0  0  0  0  0  0  0  0  0  0
   54.0292   29.0992   36.7548 O   0  0  0  0  0  0  0  0  0  0  0  0
   55.0893   28.3536   33.8865 O   0  0  0  0  0  0  0  0  0  0  0  0
   55.4764   28.9742   32.4260 P   0  0  2  0  0  0  0  0  0  0  0  0
   55.9644   27.8038   31.6122 O   0  0  0  0  0  0  0  0  0  0  0  0
   56.5869   29.9578   32.5981 O   0  0  0  0  0  0  0  0  0  0  0  0
   54.1667   29.6471   32.0058 O   0  0  0  0  0  0  0  0  0  0  0  0
   52.4174   29.4832   38.0666 H   0  0  0  0  0  0  0  0  0  0  0  0
   51.6397   27.6625   36.7081 H   0  0  0  0  0  0  0  0  0  0  0  0
   51.8442   27.0497   38.3940 H   0  0  0  0  0  0  0  0  0  0  0  0
   53.8836   25.9781   37.8279 H   0  0  0  0  0  0  0  0  0  0  0  0
   53.5978   27.0355   34.9398 H   0  0  0  0  0  0  0  0  0  0  0  0
   55.6789   27.8156   37.0334 H   0  0  0  0  0  0  0  0  0  0  0  0
   56.7226   28.4105   35.1039 H   0  0  0  0  0  0  0  0  0  0  0  0
   55.6247   29.8239   35.1921 H   0  0  0  0  0  0  0  0  0  0  0  0
   53.4210   28.1390   39.7396 H   0  0  0  0  0  0  0  0  0  0  0  0
   51.9386   24.8600   37.1823 H   0  0  0  0  0  0  0  0  0  0  0  0
   54.9941   25.0110   36.1376 H   0  0  0  0  0  0  0  0  0  0  0  0
   55.8854   28.0099   30.6779 H   0  0  0  0  0  0  0  0  0  0  0  0
   54.2997   30.1147   31.1780 H   0  0  0  0  0  0  0  0  0  0  0  0
  1  2  1  0
  1  7  1  0
  1 10  1  0
  2  3  1  0
  3  4  1  0
  3  8  1  0
  4  5  1  0
  4  9  1  0
  5  6  1  0
  5 10  1  0
  6 11  1  0
 12 11  1  1
 12 13  1  0
 12 14  2  0
 12 15  1  0
  1 16  1  1
  2 17  1  0
  2 18  1  0
  3 19  1  1
  4 20  1  6
  5 21  1  1
  6 22  1  0
  6 23  1  0
  7 24  1  0
  8 25  1  0
  9 26  1  0
 13 27  1  0
 15 28  1  0
M  END
